/*--------------------------------*- C++ -*----------------------------------*\
  =========                 |
  \\      /  F ield         | OpenFOAM: The Open Source CFD Toolbox
   \\    /   O peration     | Website:  https://openfoam.org
    \\  /    A nd           | Version:  9
     \\/     M anipulation  |
\*---------------------------------------------------------------------------*/
FoamFile
{
    format      ascii;
    class       polyBoundaryMesh;
    location    "constant/polyMesh";
    object      boundary;
}
// * * * * * * * * * * * * * * * * * * * * * * * * * * * * * * * * * * * * * //

6
(
    left
    {
        type            patch;
        nFaces          200;
        startFace       39700;
    }
    right
    {
        type            patch;
        nFaces          200;
        startFace       39900;
    }
    bot
    {
        type            patch;
        nFaces          100;
        startFace       40100;
    }
    top
    {
        type            patch;
        nFaces          100;
        startFace       40200;
    }
    front
    {
        type            empty;
        inGroups        List<word> 1(empty);
        nFaces          20000;
        startFace       40300;
    }
    back
    {
        type            empty;
        inGroups        List<word> 1(empty);
        nFaces          20000;
        startFace       60300;
    }
)

// ************************************************************************* //
