/*--------------------------------*- C++ -*----------------------------------*\
  =========                 |
  \\      /  F ield         | OpenFOAM: The Open Source CFD Toolbox
   \\    /   O peration     | Website:  https://openfoam.org
    \\  /    A nd           | Version:  9
     \\/     M anipulation  |
\*---------------------------------------------------------------------------*/
FoamFile
{
    format      ascii;
    class       polyBoundaryMesh;
    location    "constant/polyMesh";
    object      boundary;
}
// * * * * * * * * * * * * * * * * * * * * * * * * * * * * * * * * * * * * * //

8
(
    left
    {
        type            patch;
        nFaces          100;
        startFace       9850;
    }
    right
    {
        type            patch;
        nFaces          0;
        startFace       9950;
    }
    bot
    {
        type            patch;
        nFaces          0;
        startFace       9950;
    }
    top
    {
        type            patch;
        nFaces          50;
        startFace       9950;
    }
    front
    {
        type            empty;
        inGroups        List<word> 1(empty);
        nFaces          5000;
        startFace       10000;
    }
    back
    {
        type            empty;
        inGroups        List<word> 1(empty);
        nFaces          5000;
        startFace       15000;
    }
    procBoundary2to0
    {
        type            processor;
        inGroups        List<word> 1(processor);
        nFaces          50;
        startFace       20000;
        matchTolerance  0.0001;
        myProcNo        2;
        neighbProcNo    0;
    }
    procBoundary2to3
    {
        type            processor;
        inGroups        List<word> 1(processor);
        nFaces          100;
        startFace       20050;
        matchTolerance  0.0001;
        myProcNo        2;
        neighbProcNo    3;
    }
)

// ************************************************************************* //
