/*--------------------------------*- C++ -*----------------------------------*\
| =========                 |                                                 |
| \\      /  F ield         | OpenFOAM: The Open Source CFD Toolbox           |
|  \\    /   O peration     | Version:  5                                     |
|   \\  /    A nd           | Web:      www.OpenFOAM.org                      |
|    \\/     M anipulation  |                                                 |
\*---------------------------------------------------------------------------*/
FoamFile
{
    version     2.0;
    format      ascii;
    class       dictionary;
    object      blockMeshDict;
}
// * * * * * * * * * * * * * * * * * * * * * * * * * * * * * * * * * * * * * //

convertToMeters 0.001;

vertices
(
    (-10 -10 -40)
    (10 -10 -40)
    (10 10 -40)
    (-10 10 -40)

    (-10 -10 0)
    (10 -10 0)
    (10 10 0)
    (-10 10 0)
);

// uniform mesh
blocks
(
    hex (0 1 2 3 4 5 6 7) (100 1 200) simpleGrading (1 1 1)
);
/*
// non-uniform mesh
blocks
(
    hex (0 1 2 3 4 5 6 7) (100 1 200)
    simpleGrading
    (        
        (
            (20 30 4)   // 20%, 30%...
            (60 40 1)
            (20 30 0.25)
        )
	1
        1
    )
);
*/
edges
(
);

boundary
(
    left
    {
        type patch;
        faces
        (
            (0 3 7 4)
        );
    }
    right
    {
        type patch;
        faces
        (
            (1 2 6 5)
        );
    }
    bot
    {
        type patch;
        faces
        (
            (0 1 2 3)
        );
    }
    top
    {
        type patch;
        faces
        (
            (4 5 6 7)
        );
    }
    front
    {
        type empty;
        faces
        (
            (0 1 5 4)
        );
    }
    back
    {
        type empty;
        faces
        (
            (3 2 6 7)
        );
    }    
);

mergePatchPairs
(
);

// ************************************************************************* //
